Circuit: * C:\Projects\git\AnalogFadingLED\Sim\Hysteresis Feedback Resistors\Draft2.asc

Direct Newton iteration for .op point succeeded.

Date: Fri Jan 08 14:46:19 2021
Total elapsed time: 1.620 seconds.

tnom = 27
temp = 27
method = modified trap
totiter = 28704
traniter = 28691
tranpoints = 9559
accept = 7184
rejected = 2375
matrix size = 20
fillins = 8
solver = Normal
Matrix Compiler1: 1.78 KB object code size  2.4/1.3/[0.6]
Matrix Compiler2: 1.90 KB object code size  1.0/1.7/[0.9]

