Circuit: * C:\Projects\git\AnalogFadingLED\Sim\Hysteresis Feedback Resistors\Draft1.asc

Direct Newton iteration for .op point succeeded.

Date: Fri Jan 08 13:39:39 2021
Total elapsed time: 0.299 seconds.

tnom = 27
temp = 27
method = modified trap
totiter = 2339
traniter = 2336
tranpoints = 1169
accept = 1145
rejected = 24
matrix size = 3
fillins = 0
solver = Normal
Matrix Compiler1: 50 bytes object code size  0.1/0.1/[0.1]
Matrix Compiler2: 175 bytes object code size  0.2/0.2/[0.2]

