Circuit: * C:\Projects\git\AnalogFadingLED\Sim\Hysteresis Feedback Resistors\Hysteresis Feedback Resistors.asc

Limiting rise time of source v2 to 3.9968e-016
Direct Newton iteration for .op point succeeded.

Date: Fri Jan 08 01:27:58 2021
Total elapsed time: 0.192 seconds.

tnom = 27
temp = 27
method = modified trap
totiter = 2101
traniter = 2098
tranpoints = 1050
accept = 1049
rejected = 1
matrix size = 5
fillins = 0
solver = Normal
Matrix Compiler1: 114 bytes object code size  0.2/0.1/[0.1]
Matrix Compiler2: 301 bytes object code size  0.2/0.2/[0.2]

